!MP2 ZORA-DEF2-TZVP CCSD(T)
* xyz 3 1
	La -1.266293 -0.011397 -0.000010 newgto "SARC-ZORA-TZVP" end
	O 0.751552 0.136960 0.000119
	N 2.738708 1.153015 -0.000047
	H 3.381993 -1.343305 0.878653
	H 3.383166 -1.342722 -0.877909
	H 3.743297 1.130644 -0.000180
	C 2.749388 -1.265091 -0.000031
	H 2.034878 -2.072649 -0.000769
	H 2.317990 2.061113 0.000056
	C 2.074384 0.067616 0.000012
*