!MP2 ZORA-DEF2-TZVP CCSD(T)
* xyz 2 1
	La 0.976930 -0.001413 -0.000054 newgto "SARC-ZORA-TZVP" end
	H -5.493393 -0.385726 0.953044
	H -5.514174 -0.679636 -0.770068
	C -5.167991 0.007036 -0.006788
	C -3.692475 0.018486 -0.006678
	O -2.996887 1.083355 -0.001825
	O -2.997623 -1.051345 -0.001996
	H -5.557946 1.000918 -0.156505
*