!MP2 ZORA-DEF2-TZVP CCSD(T)
* xyz 3 1
	La -1.266293 -0.011397 -0.000010newgto"SARC-ZORA-TZVP"
	O 1.050745 0.158957 0.000138
	N 3.037901 1.175012 -0.000028
	H 3.681186 -1.321308 0.878672
	H 3.682359 -1.320725 -0.877890
	H 4.042490 1.152641 -0.000161
	C 3.048581 -1.243094 -0.000012
	H 2.334071 -2.050652 -0.000750
	H 2.617183 2.083110 0.000075
	C 2.373577 0.089613 0.000031
*