!MP2 ZORA-DEF2-TZVP CCSD(T)
* xyz 2 1
	La 0.976930 -0.001413 -0.000054newgto"SARC-ZORA-TZVP"
	H -3.093417 -0.395954 0.956448
	H -3.114198 -0.689864 -0.766664
	C -2.768015 -0.003192 -0.003384
	C -1.292499 0.008258 -0.003274
	O -0.596911 1.073127 0.001579
	O -0.597647 -1.061573 0.001408
	H -3.157970 0.990690 -0.153101
*