!MP2 ZORA-DEF2-TZVP CCSD(T)
* xyz 2 1
	La 1.177266 0.024240 -0.004059newgto"SARC-ZORA-TZVP"
	H -9.644902 1.661269 1.101581
	H -9.860163 1.394374 -0.620525
	C -9.132818 1.633107 0.144896
	C -8.120777 0.536945 0.181938
	O -6.750723 1.028959 0.218820
	O -8.231341 -0.612675 0.159389
	H -8.673403 2.587876 -0.050856
*