!MP2 ZORA-DEF2-TZVP CCSD(T)
* xyz 2 1
	La 0.976930 -0.001413 -0.000054 newgto "SARC-ZORA-TZVP" end
	H -3.593412 -0.393823 0.955739
	H -3.614193 -0.687733 -0.767373
	C -3.268010 -0.001061 -0.004093
	C -1.792494 0.010389 -0.003983
	O -1.096906 1.075258 0.000870
	O -1.097642 -1.059442 0.000699
	H -3.657965 0.992821 -0.153810
*