!MP2 ZORA-DEF2-TZVP CCSD(T)
* xyz 2 1
	La 0.976930 -0.001413 -0.000054newgto"SARC-ZORA-TZVP"
	H -3.893409 -0.392544 0.955314
	H -3.914190 -0.686454 -0.767798
	C -3.568007 0.000218 -0.004518
	C -2.092491 0.011668 -0.004408
	O -1.396903 1.076537 0.000445
	O -1.397639 -1.058163 0.000274
	H -3.957962 0.994100 -0.154235
*