!MP2 ZORA-DEF2-TZVP CCSD(T)
* xyz 2 1
	La 0.976930 -0.001413 -0.000054newgto"SARC-ZORA-TZVP"
	H -6.993378 -0.379334 0.950916
	H -7.014159 -0.673244 -0.772196
	C -6.667976 0.013428 -0.008916
	C -5.192460 0.024878 -0.008806
	O -4.496872 1.089747 -0.003953
	O -4.497608 -1.044953 -0.004124
	H -7.057931 1.007310 -0.158633
*