!MP2 ZORA-DEF2-TZVP CCSD(T)
* xyz 3 1
	La -1.266293 -0.011397 -0.000010newgto"SARC-ZORA-TZVP"
	O 2.347245 0.254279 0.000220
	N 4.334401 1.270334 0.000054
	H 4.977686 -1.225986 0.878754
	H 4.978859 -1.225403 -0.877808
	H 5.338990 1.247963 -0.000079
	C 4.345081 -1.147772 0.000070
	H 3.630571 -1.955330 -0.000668
	H 3.913683 2.178432 0.000157
	C 3.670077 0.184935 0.000113
*