!MP2 ZORA-DEF2-TZVP CCSD(T)
* xyz 3 1
	La -1.266293 -0.011397 -0.000010 newgto "SARC-ZORA-TZVP" end
	O 1.349937 0.180954 0.000157
	N 3.337093 1.197009 -0.000009
	H 3.980378 -1.299311 0.878691
	H 3.981551 -1.298728 -0.877871
	H 4.341682 1.174638 -0.000142
	C 3.347773 -1.221097 0.000007
	H 2.633263 -2.028655 -0.000731
	H 2.916375 2.105107 0.000094
	C 2.672769 0.111610 0.000050
*