!MP2 ZORA-DEF2-TZVP CCSD(T)
* xyz 2 1
	La 0.976930 -0.001413 -0.000054newgto"SARC-ZORA-TZVP"
	H -5.993388 -0.383595 0.952334
	H -6.014169 -0.677505 -0.770778
	C -5.667986 0.009167 -0.007498
	C -4.192470 0.020617 -0.007388
	O -3.496882 1.085486 -0.002535
	O -3.497618 -1.049214 -0.002706
	H -6.057941 1.003049 -0.157215
*