!MP2 ZORA-DEF2-TZVP CCSD(T)
* xyz 2 1
	La 0.976930 -0.001413 -0.000054newgto"SARC-ZORA-TZVP"
	H -4.493403 -0.389987 0.954462
	H -4.514184 -0.683897 -0.768650
	C -4.168001 0.002775 -0.005370
	C -2.692485 0.014225 -0.005260
	O -1.996897 1.079094 -0.000407
	O -1.997633 -1.055606 -0.000578
	H -4.557956 0.996657 -0.155087
*